feeders/22_SE001_1/008_segmentoBT.dss
New Line.SBT_20526 phases=3 bus1=ET1_1277.1.2.4 bus2=BT244791.1.2.4 linecode=44_3 length=0.03551 units=km
New Line.SBT_20527 phases=2 bus1=BT244801.1.4 bus2=BT244811.1.4 linecode=60_2 length=0.09055 units=km
New Line.SBT_3537 phases=2 bus1=BT244791.1.4 bus2=BT244801.1.4 linecode=60_2 length=0.19757 units=km
New Line.SBT_2040 phases=2 bus1=ET1_1676.1.4 bus2=BT249741.1.4 linecode=60_2 length=0.06637 units=km
New Line.SBT_2041 phases=3 bus1=ET1_1676.1.2.4 bus2=BT246671.1.2.4 linecode=44_3 length=0.11704 units=km
New Line.SBT_2042 phases=2 bus1=ET1_1676.2.4 bus2=BT249731.2.4 linecode=60_2 length=0.10555 units=km
New Line.SBT_2046 phases=3 bus1=BT246721.1.2.4 bus2=BT246731.1.2.4 linecode=44_3 length=0.11122 units=km
New Line.SBT_19687 phases=2 bus1=ET1_1676.1.4 bus2=BT246651.1.4 linecode=60_2 length=0.12587 units=km
New Line.SBT_19977 phases=3 bus1=BT246671.1.2.4 bus2=BT249751.1.2.4 linecode=44_3 length=0.03023 units=km
New Line.SBT_19978 phases=3 bus1=BT246701.1.2.4 bus2=BT246711.1.2.4 linecode=44_3 length=0.2219 units=km
New Line.SBT_2010 phases=3 bus1=BT246711.1.2.4 bus2=BT246721.1.2.4 linecode=44_3 length=0.07752 units=km
New Line.SBT_2550 phases=3 bus1=BT246671.1.2.4 bus2=BT246681.1.2.4 linecode=44_3 length=0.09301 units=km
New Line.SBT_2551 phases=2 bus1=BT246681.1.4 bus2=BT246691.1.4 linecode=60_2 length=0.11504 units=km
New Line.SBT_28801 phases=3 bus1=BT246681.1.2.4 bus2=BT246701.1.2.4 linecode=44_3 length=0.06503 units=km
New Line.SBT_20167 phases=3 bus1=BT246551.1.2.4 bus2=BT246521.1.2.4 linecode=91_3 length=0.10293 units=km
New Line.SBT_20310 phases=2 bus1=BT246561.1.4 bus2=BT246571.1.4 linecode=98_2 length=0.08497 units=km
New Line.SBT_3368 phases=3 bus1=BT246581.1.2.4 bus2=BT246601.1.2.4 linecode=84_3 length=0.03406 units=km
New Line.SBT_3369 phases=3 bus1=ET1_4818.1.2.4 bus2=BT246581.1.2.4 linecode=91_3 length=0.06551 units=km
New Line.SBT_3370 phases=3 bus1=BT246581.1.2.4 bus2=BT246591.1.2.4 linecode=84_3 length=0.05738 units=km
New Line.SBT_3371 phases=3 bus1=ET1_4818.1.2.4 bus2=BT246621.1.2.4 linecode=91_3 length=0.05882 units=km
New Line.SBT_3094 phases=3 bus1=BT246551.1.2.4 bus2=BT246561.1.2.4 linecode=84_3 length=0.08101 units=km
New Line.SBT_3095 phases=3 bus1=BT246581.1.2.4 bus2=BT246551.1.2.4 linecode=91_3 length=0.10738 units=km
New Line.SBT_3182 phases=3 bus1=ET1_494.1.2.4 bus2=BT244751.1.2.4 linecode=84_3 length=0.15317 units=km
New Line.SBT_3183 phases=2 bus1=ET1_494.1.4 bus2=BT244761.1.4 linecode=60_2 length=0.26117 units=km
New Line.SBT_3190 phases=3 bus1=BT244701.1.2.4 bus2=BT244691.1.2.4 linecode=84_3 length=0.08237 units=km
New Line.SBT_3364 phases=3 bus1=BT244721.1.2.4 bus2=BT244711.1.2.4 linecode=84_3 length=0.09552 units=km
New Line.SBT_3326 phases=2 bus1=BT244761.1.4 bus2=BT244771.1.4 linecode=60_2 length=0.05636 units=km
New Line.SBT_3363 phases=3 bus1=BT244721.1.2.4 bus2=BT244731.1.2.4 linecode=84_3 length=0.04001 units=km
New Line.SBT_3436 phases=3 bus1=BT244691.1.2.4 bus2=BT244681.1.2.4 linecode=84_3 length=0.07803 units=km
New Line.SBT_20331 phases=3 bus1=BT244711.1.2.4 bus2=BT244701.1.2.4 linecode=84_3 length=0.0681 units=km
New Line.SBT_20431 phases=3 bus1=ET1_494.1.2.4 bus2=BT244721.1.2.4 linecode=84_3 length=0.06824 units=km
New Line.SBT_23649 phases=2 bus1=ET1_4943.1.4 bus2=BT245571.1.4 linecode=60_2 length=0.07916 units=km
New Line.SBT_9002 phases=3 bus1=ET1_4943.1.2.4 bus2=BT245591.1.2.4 linecode=44_3 length=0.05104 units=km
New Line.SBT_3437 phases=3 bus1=ET1_497.1.2.4 bus2=BT246522.1.2.4 linecode=91_3 length=0.11336 units=km
New Line.SBT_3093 phases=3 bus1=BT245651.1.2.4 bus2=BT245661.1.2.4 linecode=91_3 length=0.06155 units=km
New Line.SBT_3138 phases=2 bus1=BT245701.2.4 bus2=BT245691.2.4 linecode=60_2 length=0.09009 units=km
New Line.SBT_3139 phases=3 bus1=BT245671.1.2.4 bus2=BT245641.1.2.4 linecode=91_3 length=0.08853 units=km
New Line.SBT_3140 phases=3 bus1=BT245711.1.2.4 bus2=BT245721.1.2.4 linecode=44_3 length=0.05508 units=km
New Line.SBT_2884 phases=2 bus1=BT246531.1.4 bus2=BT246541.1.4 linecode=60_2 length=0.05239 units=km
New Line.SBT_2874 phases=3 bus1=BT245701.1.2.4 bus2=BT245711.1.2.4 linecode=44_3 length=0.07864 units=km
New Line.SBT_20470 phases=3 bus1=ET1_497.1.2.4 bus2=BT245701.1.2.4 linecode=91_3 length=0.07102 units=km
New Line.SBT_20157 phases=3 bus1=BT245701.1.2.4 bus2=BT245671.1.2.4 linecode=91_3 length=0.07666 units=km
New Line.SBT_20165 phases=3 bus1=BT245641.1.2.4 bus2=BT245651.1.2.4 linecode=91_3 length=0.075 units=km
New Line.SBT_15935 phases=3 bus1=BT246522.1.2.4 bus2=BT246531.1.2.4 linecode=91_3 length=0.06964 units=km
New Line.SBT_23143 phases=3 bus1=ET17_1077.1.2.4 bus2=BT284561.1.2.4 linecode=44_3 length=0.09541 units=km
New Line.SBT_32856 phases=3 bus1=BT284481.1.2.4 bus2=BT284462.1.2.4 linecode=44_3 length=0.10124 units=km
New Line.SBT_8070 phases=2 bus1=BT284481.1.4 bus2=BT271781.1.4 linecode=60_2 length=0.04965 units=km
New Line.SBT_8109 phases=3 bus1=ET17_1077.1.2.4 bus2=BT284541.1.2.4 linecode=44_3 length=0.07747 units=km
New Line.SBT_8110 phases=2 bus1=BT284561.2.4 bus2=BT284571.2.4 linecode=60_2 length=0.03206 units=km
New Line.SBT_8111 phases=3 bus1=BT284561.1.2.4 bus2=BT284581.1.2.4 linecode=44_3 length=0.06661 units=km
New Line.SBT_8112 phases=3 bus1=BT284541.1.2.4 bus2=BT284481.1.2.4 linecode=44_3 length=0.11662 units=km
New Line.SBT_8047 phases=3 bus1=BT285501.1.2.4 bus2=BT285511.1.2.4 linecode=44_3 length=0.10448 units=km
New Line.SBT_8048 phases=3 bus1=BT285501.1.2.4 bus2=BT285461.1.2.4 linecode=44_3 length=0.09192 units=km
New Line.SBT_8049 phases=2 bus1=BT285461.1.4 bus2=BT285451.1.4 linecode=60_2 length=0.08215 units=km
New Line.SBT_8050 phases=2 bus1=BT285511.2.4 bus2=BT285551.2.4 linecode=60_2 length=0.10386 units=km
New Line.SBT_8488 phases=3 bus1=ET17_1078.1.2.4 bus2=BT285571.1.2.4 linecode=44_3 length=0.07992 units=km
New Line.SBT_8560 phases=2 bus1=BT285451.1.4 bus2=BT285441.1.4 linecode=60_2 length=0.10445 units=km
New Line.SBT_5559 phases=2 bus1=BT390651.1.4 bus2=BT390631.1.4 linecode=60_2 length=0.05503 units=km
New Line.SBT_6281 phases=2 bus1=BT285561.2.4 bus2=BT574661.2.4 linecode=60_2 length=0.11328 units=km
New Line.SBT_23107 phases=3 bus1=BT285571.1.2.4 bus2=BT285581.1.2.4 linecode=44_3 length=0.16309 units=km
New Line.SBT_23108 phases=2 bus1=BT285581.1.4 bus2=BT285591.1.4 linecode=60_2 length=0.11279 units=km
New Line.SBT_23114 phases=2 bus1=BT285551.2.4 bus2=BT285561.2.4 linecode=60_2 length=0.25318 units=km
New Line.SBT_28768 phases=3 bus1=ET17_1078.1.2.4 bus2=BT285501.1.2.4 linecode=44_3 length=0.10017 units=km
New Line.SBT_1928 phases=2 bus1=BT285581.1.4 bus2=BT390651.1.4 linecode=60_2 length=0.10728 units=km
New Line.SBT_18335 phases=2 bus1=BT265581.2.4 bus2=BT388951.2.4 linecode=60_2 length=0.1156 units=km
New Line.SBT_28295 phases=2 bus1=ET17_1080.2.4 bus2=BT265581.2.4 linecode=60_2 length=0.05217 units=km
New Line.SBT_8348 phases=2 bus1=BT388951.2.4 bus2=BT265591.2.4 linecode=60_2 length=0.07341 units=km
New Line.SBT_31005 phases=3 bus1=BT584621.1.2.4 bus2=BT269981.1.2.4 linecode=44_3 length=0.05319 units=km
New Line.SBT_31006 phases=3 bus1=ET17_1080.1.2.4 bus2=BT584621.1.2.4 linecode=44_3 length=0.05304 units=km
New Line.SBT_33842 phases=2 bus1=BT251851.1.4 bus2=BT251861.1.4 linecode=60_2 length=0.07931 units=km
New Line.SBT_8350 phases=3 bus1=ET17_1081.1.2.4 bus2=BT251921.1.2.4 linecode=44_3 length=0.07284 units=km
New Line.SBT_8305 phases=3 bus1=BT251831.1.2.4 bus2=BT251821.1.2.4 linecode=44_3 length=0.11132 units=km
New Line.SBT_8308 phases=2 bus1=BT251861.1.4 bus2=BT251871.1.4 linecode=60_2 length=0.09818 units=km
New Line.SBT_8364 phases=2 bus1=BT251801.2.4 bus2=BT251811.2.4 linecode=60_2 length=0.07912 units=km
New Line.SBT_8365 phases=3 bus1=BT251801.1.2.4 bus2=BT251771.1.2.4 linecode=44_3 length=0.06237 units=km
New Line.SBT_8366 phases=2 bus1=BT251871.1.4 bus2=BT251881.1.4 linecode=60_2 length=0.06113 units=km
New Line.SBT_23145 phases=3 bus1=ET17_1081.1.2.4 bus2=BT251851.1.2.4 linecode=44_3 length=0.16887 units=km
New Line.SBT_23255 phases=3 bus1=BT251821.1.2.4 bus2=BT251801.1.2.4 linecode=44_3 length=0.09625 units=km
New Line.SBT_23276 phases=3 bus1=ET17_1081.1.2.4 bus2=BT251831.1.2.4 linecode=44_3 length=0.09437 units=km
New Line.SBT_29214 phases=2 bus1=BT748891.2.4 bus2=BT283491.2.4 linecode=67_2 length=0.07621 units=km
New Line.SBT_26328 phases=2 bus1=BT283371.2.4 bus2=BT478901.2.4 linecode=60_2 length=0.03569 units=km
New Line.SBT_8587 phases=3 bus1=ET17_1082.1.2.4 bus2=BT282711.1.2.4 linecode=91_3 length=0.09505 units=km
New Line.SBT_8588 phases=3 bus1=BT282711.1.2.4 bus2=BT282701.1.2.4 linecode=91_3 length=0.09402 units=km
New Line.SBT_8598 phases=2 bus1=BT283371.2.4 bus2=BT748891.2.4 linecode=67_2 length=0.08617 units=km
New Line.SBT_8781 phases=3 bus1=ET17_1082.1.2.4 bus2=BT297121.1.2.4 linecode=91_3 length=0.11131 units=km
New Line.SBT_8782 phases=3 bus1=BT297121.1.2.4 bus2=BT297131.1.2.4 linecode=91_3 length=0.08204 units=km
New Line.SBT_8783 phases=3 bus1=BT297131.1.2.4 bus2=BT283371.1.2.4 linecode=91_3 length=0.09732 units=km
New Line.SBT_31267 phases=3 bus1=BT282701.1.2.4 bus2=BT282652.1.2.4 linecode=91_3 length=0.1206 units=km
New Line.SBT_32268 phases=2 bus1=ET17_1115.1.4 bus2=BT272711.1.4 linecode=60_2 length=0.13925 units=km
New Line.SBT_8611 phases=2 bus1=BT272711.1.4 bus2=BT272721.1.4 linecode=60_2 length=0.07258 units=km
New Line.SBT_9004 phases=2 bus1=ET17_1116.2.4 bus2=BT250011.2.4 linecode=60_2 length=0.07108 units=km
New Line.SBT_9074 phases=2 bus1=BT250011.2.4 bus2=BT250021.2.4 linecode=60_2 length=0.08237 units=km
New Line.SBT_9075 phases=3 bus1=ET17_1116.1.2.4 bus2=BT249991.1.2.4 linecode=44_3 length=0.1203 units=km
New Line.SBT_9076 phases=3 bus1=BT249981.1.2.4 bus2=BT249971.1.2.4 linecode=44_3 length=0.11952 units=km
New Line.SBT_23692 phases=3 bus1=BT249991.1.2.4 bus2=BT249981.1.2.4 linecode=44_3 length=0.09853 units=km
New Line.SBT_23815 phases=2 bus1=BT249971.1.4 bus2=BT361691.1.4 linecode=60_2 length=0.07741 units=km
New Line.SBT_32963 phases=4 bus1=ET17_1283.1.2.3.4 bus2=BT786531.1.2.3.4 linecode=74_4 length=0.0558 units=km
New Line.SBT_32960 phases=4 bus1=BT786531.1.2.3.4 bus2=BT261581.1.2.3.4 linecode=73_4 length=0.05308 units=km
New Line.SBT_9525 phases=2 bus1=BT560041.1.4 bus2=BT376341.1.4 linecode=62_2 length=0.24387 units=km
New Line.SBT_9526 phases=2 bus1=BT376351.1.4 bus2=BT376361.1.4 linecode=60_2 length=0.18312 units=km
New Line.SBT_23953 phases=2 bus1=BT376341.1.4 bus2=BT376351.1.4 linecode=60_2 length=0.06259 units=km
New Line.SBT_15382 phases=2 bus1=ET17_1509.1.4 bus2=BT560041.1.4 linecode=62_2 length=0.01628 units=km
New Line.SBT_30489 phases=3 bus1=ET17_1590.1.2.4 bus2=BT272672.1.2.4 linecode=44_3 length=0.04586 units=km
New Line.SBT_30490 phases=3 bus1=ET17_1590.1.2.4 bus2=BT285633.1.2.4 linecode=44_3 length=0.09843 units=km
New Line.SBT_8351 phases=3 bus1=BT278931.1.2.4 bus2=BT278941.1.2.4 linecode=59_3 length=0.03202 units=km
New Line.SBT_8352 phases=3 bus1=BT278971.1.2.4 bus2=BT278981.1.2.4 linecode=44_3 length=0.09946 units=km
New Line.SBT_22441 phases=2 bus1=BT278991.1.4 bus2=BT279001.1.4 linecode=60_2 length=0.0978 units=km
New Line.SBT_23277 phases=3 bus1=ET17_1663.1.2.4 bus2=BT278961.1.2.4 linecode=44_3 length=0.11173 units=km
New Line.SBT_23278 phases=3 bus1=BT278961.1.2.4 bus2=BT278971.1.2.4 linecode=44_3 length=0.05174 units=km
New Line.SBT_23279 phases=2 bus1=BT278961.1.4 bus2=BT278991.1.4 linecode=60_2 length=0.11168 units=km
New Line.SBT_23244 phases=3 bus1=ET17_1663.1.2.4 bus2=BT278931.1.2.4 linecode=59_3 length=0.08322 units=km
New Line.SBT_23436 phases=3 bus1=BT270941.1.2.4 bus2=BT270921.1.2.4 linecode=80_3 length=0.18423 units=km
New Line.SBT_23443 phases=2 bus1=BT270951.1.4 bus2=BT292761.1.4 linecode=60_2 length=0.12434 units=km
New Line.SBT_23444 phases=2 bus1=BT276481.1.4 bus2=BT276491.1.4 linecode=60_2 length=0.10481 units=km
New Line.SBT_8628 phases=3 bus1=ET17_1670.1.2.4 bus2=BT270941.1.2.4 linecode=80_3 length=0.07359 units=km
New Line.SBT_8629 phases=3 bus1=ET17_1670.1.2.4 bus2=BT270971.1.2.4 linecode=80_3 length=0.09187 units=km
New Line.SBT_8630 phases=2 bus1=BT270941.1.4 bus2=BT270951.1.4 linecode=60_2 length=0.03736 units=km
New Line.SBT_8631 phases=3 bus1=BT270921.1.2.4 bus2=BT270931.1.2.4 linecode=80_3 length=0.08801 units=km
New Line.SBT_8641 phases=2 bus1=BT270921.1.4 bus2=BT276481.1.4 linecode=60_2 length=0.11216 units=km
New Line.SBT_33102 phases=3 bus1=BT232752.1.2.4 bus2=BT788322.1.2.4 linecode=59_3 length=0.02641 units=km
New Line.SBT_35491 phases=3 bus1=BT811231.1.2.4 bus2=BT232752.1.2.4 linecode=59_3 length=0.0416 units=km
New Line.SBT_35492 phases=3 bus1=ET17_1714.1.2.4 bus2=BT811231.1.2.4 linecode=59_3 length=0.04162 units=km
New Line.SBT_6880 phases=2 bus1=BT283561.2.4 bus2=BT283601.2.4 linecode=60_2 length=0.09922 units=km
New Line.SBT_6881 phases=3 bus1=BT283531.1.2.4 bus2=BT283521.1.2.4 linecode=44_3 length=0.05689 units=km
New Line.SBT_6882 phases=3 bus1=BT283521.1.2.4 bus2=BT283511.1.2.4 linecode=44_3 length=0.04061 units=km
New Line.SBT_7656 phases=3 bus1=BT283551.1.2.4 bus2=BT283541.1.2.4 linecode=44_3 length=0.07102 units=km
New Line.SBT_22880 phases=3 bus1=BT283561.1.2.4 bus2=BT283551.1.2.4 linecode=44_3 length=0.05292 units=km
New Line.SBT_25787 phases=2 bus1=BT283601.2.4 bus2=BT556321.2.4 linecode=60_2 length=0.12717 units=km
New Line.SBT_29215 phases=3 bus1=ET17_1757.1.2.4 bus2=BT283561.1.2.4 linecode=59_3 length=0.05088 units=km
New Line.SBT_29216 phases=4 bus1=ET17_1757.1.2.3.4 bus2=BT748911.1.2.3.4 linecode=74_4 length=0.03186 units=km
New Line.SBT_22429 phases=3 bus1=BT283541.1.2.4 bus2=BT283531.1.2.4 linecode=44_3 length=0.10671 units=km
New Line.SBT_22430 phases=2 bus1=BT556321.2.4 bus2=BT284381.2.4 linecode=60_2 length=0.13766 units=km
New Line.SBT_16723 phases=3 bus1=BT243201.1.2.4 bus2=BT744181.1.2.4 linecode=59_3 length=0.04751 units=km
New Line.SBT_27967 phases=3 bus1=BT744181.1.2.4 bus2=BT744191.1.2.4 linecode=59_3 length=0.07301 units=km
New Line.SBT_22745 phases=3 bus1=BT243191.1.2.4 bus2=BT243201.1.2.4 linecode=59_3 length=0.0612 units=km
New Line.SBT_32958 phases=3 bus1=ET17_1843.1.2.4 bus2=BT243191.1.2.4 linecode=59_3 length=0.04632 units=km
New Line.SBT_32959 phases=3 bus1=BT786771.1.2.4 bus2=BT243231.1.2.4 linecode=59_3 length=0.04109 units=km
New Line.SBT_32965 phases=3 bus1=ET17_1843.1.2.4 bus2=BT786771.1.2.4 linecode=59_3 length=0.03763 units=km
New Line.SBT_30310 phases=2 bus1=BT760152.2.4 bus2=BT261921.2.4 linecode=60_2 length=0.06364 units=km
New Line.SBT_30311 phases=2 bus1=BT760161.2.4 bus2=BT261931.2.4 linecode=60_2 length=0.0431 units=km
New Line.SBT_30315 phases=2 bus1=ET17_2014.2.4 bus2=BT760131.2.4 linecode=62_2 length=0.05955 units=km
New Line.SBT_30316 phases=2 bus1=BT760131.2.4 bus2=BT760141.2.4 linecode=62_2 length=0.05727 units=km
New Line.SBT_30317 phases=2 bus1=BT760141.2.4 bus2=BT760152.2.4 linecode=62_2 length=0.05828 units=km
New Line.SBT_30318 phases=2 bus1=BT261921.2.4 bus2=BT760161.2.4 linecode=60_2 length=0.07768 units=km
New Line.SBT_7837 phases=2 bus1=ET17_2014.1.4 bus2=BT261881.1.4 linecode=60_2 length=0.127 units=km
New Line.SBT_7838 phases=2 bus1=BT261881.1.4 bus2=BT261891.1.4 linecode=60_2 length=0.06433 units=km
New Line.SBT_6584 phases=3 bus1=ET17_2430.1.2.4 bus2=BT309571.1.2.4 linecode=44_3 length=0.08448 units=km
New Line.SBT_6408 phases=3 bus1=BT309571.1.2.4 bus2=BT350651.1.2.4 linecode=44_3 length=0.08571 units=km
New Line.SBT_6409 phases=2 bus1=BT309601.1.4 bus2=BT309611.1.4 linecode=60_2 length=0.04383 units=km
New Line.SBT_6410 phases=2 bus1=BT309611.1.4 bus2=BT309621.1.4 linecode=60_2 length=0.12034 units=km
New Line.SBT_22157 phases=2 bus1=BT350651.1.4 bus2=BT309591.1.4 linecode=60_2 length=0.13771 units=km
New Line.SBT_22258 phases=3 bus1=ET17_2430.1.2.4 bus2=BT309601.1.2.4 linecode=44_3 length=0.06603 units=km
New Line.SBT_22309 phases=2 bus1=ET17_2462.2.4 bus2=BT360971.2.4 linecode=62_2 length=0.06403 units=km
New Line.SBT_6675 phases=2 bus1=ET17_2462.1.4 bus2=BT360951.1.4 linecode=62_2 length=0.10202 units=km
New Line.SBT_7124 phases=3 bus1=BT743971.1.2.4 bus2=BT281051.1.2.4 linecode=44_3 length=0.07063 units=km
New Line.SBT_7125 phases=3 bus1=BT508861.1.2.4 bus2=BT281031.1.2.4 linecode=44_3 length=0.07481 units=km
New Line.SBT_7138 phases=3 bus1=BT281031.1.2.4 bus2=BT290281.1.2.4 linecode=59_3 length=0.08301 units=km
New Line.SBT_7139 phases=2 bus1=BT344101.2.4 bus2=BT296641.2.4 linecode=60_2 length=0.15431 units=km
New Line.SBT_7140 phases=2 bus1=BT296641.2.4 bus2=BT296651.2.4 linecode=60_2 length=0.06307 units=km
New Line.SBT_8555 phases=3 bus1=BT281021.1.2.4 bus2=BT268471.1.2.4 linecode=91_3 length=0.15428 units=km
New Line.SBT_31955 phases=2 bus1=BT281051.1.4 bus2=BT281062.1.4 linecode=60_2 length=0.16029 units=km
New Line.SBT_18066 phases=3 bus1=ET17_2504.1.2.4 bus2=BT508861.1.2.4 linecode=44_3 length=0.09393 units=km
New Line.SBT_16684 phases=2 bus1=BT743971.1.4 bus2=BT743981.1.4 linecode=62_2 length=0.1056 units=km
New Line.SBT_16685 phases=2 bus1=BT743981.1.4 bus2=BT743991.1.4 linecode=62_2 length=0.06303 units=km
New Line.SBT_17363 phases=3 bus1=BT683631.1.2.4 bus2=BT281021.1.2.4 linecode=59_3 length=0.05478 units=km
New Line.SBT_22572 phases=3 bus1=BT281051.1.2.4 bus2=BT344101.1.2.4 linecode=44_3 length=0.09563 units=km
New Line.SBT_27938 phases=3 bus1=ET17_2504.1.2.4 bus2=BT743971.1.2.4 linecode=44_3 length=0.08538 units=km
New Line.SBT_27939 phases=2 bus1=BT743991.1.4 bus2=BT744001.1.4 linecode=62_2 length=0.08477 units=km
New Line.SBT_28325 phases=3 bus1=BT290281.1.2.4 bus2=BT683631.1.2.4 linecode=59_3 length=0.07748 units=km
New Line.SBT_26477 phases=2 bus1=BT281021.2.4 bus2=BT639451.2.4 linecode=62_2 length=0.08286 units=km
New Line.SBT_32819 phases=3 bus1=BT785221.1.2.4 bus2=BT785212.1.2.4 linecode=44_3 length=0.04989 units=km
New Line.SBT_32820 phases=3 bus1=BT785231.1.2.4 bus2=BT785221.1.2.4 linecode=44_3 length=0.04906 units=km
New Line.SBT_32821 phases=3 bus1=BT785241.1.2.4 bus2=BT785231.1.2.4 linecode=44_3 length=0.04982 units=km
New Line.SBT_32822 phases=3 bus1=ET17_26.1.2.4 bus2=BT785241.1.2.4 linecode=44_3 length=0.05326 units=km
New Line.SBT_32824 phases=3 bus1=ET17_26.1.2.4 bus2=BT785261.1.2.4 linecode=44_3 length=0.05345 units=km
New Line.SBT_32825 phases=3 bus1=BT785261.1.2.4 bus2=BT785271.1.2.4 linecode=44_3 length=0.04391 units=km
New Line.SBT_30764 phases=3 bus1=BT587341.1.2.4 bus2=BT269971.1.2.4 linecode=88_3 length=0.09453 units=km
New Line.SBT_30765 phases=3 bus1=ET17_2608.1.2.4 bus2=BT587341.1.2.4 linecode=88_3 length=0.05921 units=km
New Line.SBT_26237 phases=2 bus1=BT269971.1.4 bus2=BT755631.1.4 linecode=62_2 length=0.05914 units=km
New Line.SBT_29858 phases=2 bus1=BT755631.1.4 bus2=BT48911.1.4 linecode=62_2 length=0.06302 units=km
New Line.SBT_27567 phases=3 bus1=ET17_2624.1.2.4 bus2=BT705061.1.2.4 linecode=44_3 length=0.03795 units=km
New Line.SBT_22579 phases=3 bus1=BT705061.1.2.4 bus2=BT284611.1.2.4 linecode=44_3 length=0.06778 units=km
New Line.SBT_32834 phases=4 bus1=ET17_27.1.2.3.4 bus2=BT785491.1.2.3.4 linecode=74_4 length=0.04583 units=km
New Line.SBT_32836 phases=4 bus1=ET17_27.1.2.3.4 bus2=BT785511.1.2.3.4 linecode=74_4 length=0.04775 units=km
New Line.SBT_32837 phases=4 bus1=BT785511.1.2.3.4 bus2=BT785521.1.2.3.4 linecode=74_4 length=0.05089 units=km
New Line.SBT_32838 phases=4 bus1=BT785521.1.2.3.4 bus2=BT785531.1.2.3.4 linecode=74_4 length=0.02996 units=km
New Line.SBT_32804 phases=4 bus1=BT785591.1.2.3.4 bus2=BT261782.1.2.3.4 linecode=74_4 length=0.03267 units=km
New Line.SBT_32809 phases=4 bus1=BT785531.1.2.3.4 bus2=BT630381.1.2.3.4 linecode=75_4 length=0.04251 units=km
New Line.SBT_32810 phases=4 bus1=BT785521.1.2.3.4 bus2=BT637702.1.2.3.4 linecode=74_4 length=0.03324 units=km
New Line.SBT_32842 phases=4 bus1=BT785491.1.2.3.4 bus2=BT785591.1.2.3.4 linecode=74_4 length=0.05395 units=km
New Line.SBT_33710 phases=4 bus1=BT793891.1.2.3.4 bus2=BT793901.1.2.3.4 linecode=73_4 length=0.03216 units=km
New Line.SBT_33709 phases=4 bus1=BT785531.1.2.3.4 bus2=BT793891.1.2.3.4 linecode=73_4 length=0.122 units=km
New Line.SBT_29472 phases=3 bus1=BT280141.1.2.4 bus2=BT280131.1.2.4 linecode=44_3 length=0.06657 units=km
New Line.SBT_29473 phases=3 bus1=ET17_2778.1.2.4 bus2=BT280141.1.2.4 linecode=44_3 length=0.04528 units=km
New Line.SBT_29475 phases=3 bus1=BT280141.1.2.4 bus2=BT280191.1.2.4 linecode=44_3 length=0.07409 units=km
New Line.SBT_29476 phases=3 bus1=BT280131.1.2.4 bus2=BT322052.1.2.4 linecode=44_3 length=0.03689 units=km
New Line.SBT_29477 phases=2 bus1=BT280191.1.4 bus2=BT634271.1.4 linecode=60_2 length=0.10104 units=km
New Line.SBT_23465 phases=2 bus1=ET17_2851.1.4 bus2=BT346111.1.4 linecode=62_2 length=0.02433 units=km
New Line.SBT_22508 phases=3 bus1=ET17_290.1.2.4 bus2=BT276511.1.2.4 linecode=44_3 length=0.11885 units=km
New Line.SBT_22512 phases=2 bus1=BT276511.2.4 bus2=BT276521.2.4 linecode=60_2 length=0.0536 units=km
...
